<!--
SPDX-FileCopyrightText: 2023 Mario Franke <research@m-franke.net>

SPDX-License-Identifier: GPL-2.0-or-later
-->

<edges>
    <edge id="he0_0" from="n0_0" to="n1_0" priority="10" numLanes="1" speed="13.89"/>

    <edge id="-he0_0" to="n0_0" from="n1_0" priority="10" numLanes="1" speed="13.89"/>
</edges>
