<routes xmlns:xsi="http://www.w3.org/2001/XMLSchema-instance" xsi:noNamespaceSchemaLocation="http://sumo.dlr.de/xsd/routes_file.xsd">
    <route id="r0" edges="he0_0 -he0_0 he0_0 -he0_0 he0_0 -he0_0 he0_0 -he0_0 he0_0 -he0_0 he0_0 -he0_0 he0_0 -he0_0 he0_0 -he0_0 he0_0 -he0_0 he0_0 -he0_0 he0_0 -he0_0"/>
</routes>
